
**** 05/02/20 13:26:02 ******* PSpice Lite (March 2016) ******* ID# 10813 ****

 ** Profile: "SCHEMATIC1-bias"  [ D:\geoff\Documents\OneDrive - he2b.be\Ecole 2019 - 2020\Q2\Bureau_Etude\1803 - Banc d_essais Moteur


 ****     CIRCUIT DESCRIPTION


******************************************************************************




** Creating circuit file "bias.cir" 
** WARNING: THIS AUTOMATICALLY GENERATED FILE MAY BE OVERWRITTEN BY SUBSEQUENT SIMULATIONS

*Libraries: 
* Profile Libraries :
* Local Libraries :
* From [PSPICE NETLIST] section of D:\SPB_DATA\cdssetup\OrCAD_PSpice\17.2.0\PSpice.ini file:
.lib "nomd.lib" 

*Analysis directives: 
.OPTIONS ADVCONV
.PROBE64 V(alias(*)) I(alias(*)) W(alias(*)) D(alias(*)) NOISE(alias(*)) 
.INC "..\SCHEMATIC1.net" 



**** INCLUDING SCHEMATIC1.net ****
* source ESSAISSIMUPSPICE
X_U4         N14788 0 N14808 N147723 N16057 0 N16175 N14726 AD623 
R_R12         0 N14694  1k TC=0,0 
R_R10         N14702 N16064  1k TC=0,0 
R_R11         N14808 N147723  1k TC=0,0 
R_R13         N14694 N15775  1k TC=0,0 
X_R14         0 N14788 N14702 POT PARAMS: SET=0.5 VALUE=1K
X_U3A         N14694 N14726 N16057 0 N14726 TLC2262/101/TI
V_V1         N15775 0 3,3Vdc
V_V2         N16057 0 5Vdc
V_V3         N16064 0 12
R_R19         0 N16175  1k TC=0,0 

**** RESUMING bias.cir ****
.END

ERROR(ORPSIM-15108): Subcircuit AD623 used by X_U4 is undefined
